Modified 4 Bus/IEEE 6 Node Base System/4busYDBal_Power_elem_kVA.txt

CIRCUIT ELEMENT POWER FLOW

(Power Flow into element from indicated Bus)

Power Delivery Elements

  Bus     Phase     kW     +j   kvar         kVA         PF

ELEMENT = "Vsource.SOURCE"
SOURCEBUS     1     -2251.2 +j  -1626.2     2777.1       0.8106
SOURCEBUS     2     -2243.2 +j  -1645.9     2782.3       0.8063
SOURCEBUS     3     -2263.3 +j  -1647.0     2799.2       0.8086
   TERMINAL TOTAL . -6757.8 +j  -4919.0     8358.5       0.8085
SOURCEBUS     0         0.0 +j      0.0        0.0       1.0000
SOURCEBUS     0         0.0 +j      0.0        0.0       1.0000
SOURCEBUS     0         0.0 +j      0.0        0.0       1.0000
   TERMINAL TOTAL .     0.0 +j      0.0        0.0       1.0000

ELEMENT = "Line.LINE1"
SOURCEBUS     1      2251.2 +j   1626.2     2777.1       0.8106
SOURCEBUS     2      2243.2 +j   1645.9     2782.3       0.8063
SOURCEBUS     3      2263.3 +j   1647.0     2799.2       0.8086
   TERMINAL TOTAL .  6757.8 +j   4919.0     8358.5       0.8085
N2            1     -2228.8 +j  -1590.8     2738.3       0.8139
N2            2     -2229.2 +j  -1613.3     2751.7       0.8101
N2            3     -2247.7 +j  -1608.7     2764.0       0.8132
   TERMINAL TOTAL . -6705.7 +j  -4812.8     8254.0       0.8124

ELEMENT = "Transformer.T1"
N2            1      2228.8 +j   1590.8     2738.3       0.8139
N2            2      2229.2 +j   1613.3     2751.7       0.8101
N2            3      2247.7 +j   1608.7     2764.0       0.8132
N2            0         0.0 +j      0.0        0.0       1.0000
   TERMINAL TOTAL .  6705.7 +j   4812.8     8254.0       0.8124
N3            1     -2285.3 +j  -1279.9     2619.4       0.8725
N3            2     -2225.5 +j  -1498.3     2682.9       0.8295
N3            3     -2078.3 +j  -1335.8     2470.6       0.8412
N3            0         0.0 +j      0.0        0.0       1.0000
   TERMINAL TOTAL . -6589.2 +j  -4114.0     7768.1       0.8482

ELEMENT = "Line.LINE2"
N3            1      2285.3 +j   1279.9     2619.4       0.8725
N3            2      2225.5 +j   1498.3     2682.9       0.8295
N3            3      2078.3 +j   1335.8     2470.6       0.8412
   TERMINAL TOTAL .  6589.2 +j   4114.0     7768.1       0.8482
N4            1     -2028.1 +j   -877.0     2209.6       0.9179
N4            2     -2071.3 +j  -1126.4     2357.8       0.8785
N4            3     -1904.7 +j   -911.9     2111.7       0.9020
   TERMINAL TOTAL . -6004.1 +j  -2915.3     6674.4       0.8996

ELEMENT = "Line.LINE3"
N4            1       204.3 +j     90.6      223.5       0.9142
N4            2       208.5 +j    115.8      238.5       0.8742
N4            3       191.9 +j     94.0      213.6       0.8981
   TERMINAL TOTAL .   604.7 +j    300.3      675.2       0.8956
N5            1      -203.3 +j    -88.9      221.9       0.9162
N5            2      -207.9 +j   -114.3      237.2       0.8763
N5            3      -191.2 +j    -92.2      212.2       0.9006
   TERMINAL TOTAL .  -602.3 +j   -295.4      670.9       0.8978

ELEMENT = "Line.LINE4"
N5            1       203.3 +j     88.9      221.9       0.9162
N5            2       207.9 +j    114.3      237.2       0.8763
N5            3       191.2 +j     92.2      212.2       0.9006
   TERMINAL TOTAL .   602.3 +j    295.4      670.9       0.8978
N6            1      -202.2 +j    -87.3      220.3       0.9182
N6            2      -207.3 +j   -112.8      235.9       0.8784
N6            3      -190.4 +j    -90.5      210.9       0.9032
   TERMINAL TOTAL .  -599.9 +j   -290.5      666.6       0.9000

= = = = = = = = = = = = = = = = = = =  = = = = = = = = = = =  = =

Power Conversion Elements

  Bus     Phase     kW   +j  kvar         kVA         PF

ELEMENT = "Load.LOAD1"
N4            1    1823.8 +j  786.4     1986.2       0.9183
N4            2    1862.9 +j 1010.6     2119.4       0.8790
N4            3    1712.9 +j  817.9     1898.2       0.9024
  TERMINAL TOTAL  .  5399.7 +j   2614.9     5999.6       0.9000

ELEMENT = "Load.LOAD2"
N6            1     202.2 +j   87.3      220.3       0.9182
N6            2     207.3 +j  112.8      236.0       0.8784
N6            3     190.5 +j   90.5      210.9       0.9032
  TERMINAL TOTAL  .   600.0 +j    290.5      666.6       0.9000


Total Circuit Losses =  758.5 +j 2013.6
